*Heading
** Job name: MESH18 Model name: Cube_without_shear
** Generated by: Abaqus/CAE 2023
*Preprint, echo=NO, model=NO, history=NO, contact=NO
**
** PARTS
**
*Part, name=Cube-1
*Node
      1,          -2.,          -2.,   52.0999985
      2,          -2.,          -2.,   42.0999985
      3,           2.,          -2.,   42.0999985
      4,           2.,          -2.,   52.0999985
      5,           2.,           2.,   52.0999985
      6,          -2.,           2.,   52.0999985
      7,          -2.,           2.,   42.0999985
      8,           2.,           2.,   42.0999985
      9,          -2.,          -2.,   51.5117645
     10,          -2.,          -2.,   50.9235306
     11,          -2.,          -2.,   50.3352928
     12,          -2.,          -2.,   49.7470589
     13,          -2.,          -2.,   49.1588249
     14,          -2.,          -2.,   48.5705872
     15,          -2.,          -2.,   47.9823532
     16,          -2.,          -2.,   47.3941193
     17,          -2.,          -2.,   46.8058815
     18,          -2.,          -2.,   46.2176476
     19,          -2.,          -2.,   45.6294136
     20,          -2.,          -2.,   45.0411758
** ... 1236 like lines cut
*Element, type=C3D4
   1,  577,  578,  579,  580
   2,  577,  581,  578,  580
   3,  577,  582,  583,  581
   4,  577,  582,  584,  583
   5,  585,  586,  587,  588
   6,  589,  590,  591,  592
   7,  589,  593,  590,  592
   8,  594,  595,  596,  597
   9,  598,  586,  587,  585
  10,  589,  598,  599,  600
  11,  589,  591,  601,  586
  12,  589,  599,  586,  601
  13,  602,  603,  604,  605
  14,  602,  605,  606,  603
  15,  591,  607,  608,  609
  16,  607,  610,  608,  602
  17,  602,  611,  612,  613
  18,  602,  606,  614,  603
  19,  602,  603,  614,  615
  20,  602,  612,  611,  616
** ... 5642 like lines cut
*Node
   1257,           0.,           0.,   42.0999985
*Nset, nset=Cube-1-RefPt_, internal
1257, 
*Nset, nset=_PickedSet3, internal, generate
    1,  1256,     1
*Elset, elset=_PickedSet3, internal, generate
    1,  5662,     1
** Section: Rigid
*Solid Section, elset=_PickedSet3, material=Rigid
,
*End Part
**  
*Part, name=GelTip
*Node
      1,           0.,         -15.,          27.
      2,           0.,           0.,          42.
      3,         -15.,           0.,          27.
      4,           0.,         -13.,          27.
      5,           0.,           0.,          40.
      6,         -13.,           0.,          27.
      7,          13.,           0.,          27.
      8,          15.,           0.,          27.
      9,           0.,          13.,          27.
     10,           0.,          15.,          27.
     11,           0.,          13.,           0.
     12,         -13.,           0.,           0.
     13,           0.,         -13.,           0.
     14,         -15.,           0.,           0.
     15,           0.,          15.,           0.
     16,           0.,         -15.,           0.
     17,          15.,           0.,           0.
     18,          13.,           0.,           0.
     19,  -14.8906336,  -1.80805016,          27.
     20,   -14.564127,  -3.58973503,          27.
** ... 3997 like lines cut
*Element, type=C3D8RH
  1,  556,  557, 2880, 2874,   24,   25,  431,  430
  2,  557,  558, 2881, 2880,   25,   26,  432,  431
  3,  558,  559, 2882, 2881,   26,   27,  433,  432
  4,  559,  560, 2883, 2882,   27,   28,  434,  433
  5,  560,  561, 2884, 2883,   28,   29,  435,  434
  6,  561,  562, 2885, 2884,   29,   30,  436,  435
  7,  562,   43,  544, 2885,   30,    1,   31,  436
  8, 2874, 2880, 2886, 2873,  430,  431,  438,  437
  9, 2880, 2881, 2887, 2886,  431,  432,  439,  438
 10, 2881, 2882, 2888, 2887,  432,  433,  440,  439
 11, 2882, 2883, 2889, 2888,  433,  434,  441,  440
 12, 2883, 2884, 2890, 2889,  434,  435,  442,  441
 13, 2884, 2885, 2891, 2890,  435,  436,  443,  442
 14, 2885,  544,  545, 2891,  436,   31,   32,  443
 15, 2873, 2886, 2892, 2872,  437,  438,  445,  444
 16, 2886, 2887, 2893, 2892,  438,  439,  446,  445
 17, 2887, 2888, 2894, 2893,  439,  440,  447,  446
 18, 2888, 2889, 2895, 2894,  440,  441,  448,  447
 19, 2889, 2890, 2896, 2895,  441,  442,  449,  448
 20, 2890, 2891, 2897, 2896,  442,  443,  450,  449
** ... 2604 like lines cut
*Nset, nset=_PickedSet2, internal, generate
    1,  4017,     1
*Elset, elset=_PickedSet2, internal, generate
    1,  2624,     1
** Section: Elastomer
*Solid Section, elset=_PickedSet2, material=Elastomer
,
*End Part
**  
**
** ASSEMBLY
**
*Assembly, name=Assembly
**  
*Instance, name=GelTip-1, part=GelTip
*End Instance
**  
*Instance, name=Cube-1-1, part=Cube-1
19.0918830920368,           0., 7.90811690796323
19.0918830920368,           0., 7.90811690796323, 19.0918830920368, -1.0000000139546, 7.90811690796323, 45.0000000171299
*End Instance
**  
*Nset, nset="Boundary Condition", instance=GelTip-1
    4,    5,    6,    7,    9,   11,   12,   13,   18,   59,   60,   61,   62,   63,   64,   65
   66,   67,   68,   69,   70,   71,   72,   73,   74,   75,   76,   77,   78,   79,   80,   81
   82,   83,   84,   85,   86,   87,   88,   89,   90,   91,   92,   93,   94,   95,   96,   97
   98,   99,  100,  101,  102,  103,  104,  105,  106,  107,  108,  109,  110,  111,  112,  113
  114,  115,  116,  117,  118,  119,  120,  147,  148,  149,  150,  151,  152,  153,  154,  155
  156,  157,  158,  159,  160,  161,  162,  163,  164,  165,  166,  167,  168,  169,  170,  196
  197,  198,  199,  200,  201,  202,  203,  204,  205,  206,  207,  208,  209,  210,  211,  212
  213,  214,  215,  216,  217,  218,  219,  220,  221,  222,  223,  224,  225,  226,  227,  228
  229,  230,  231,  232,  233,  234,  235,  236,  237,  238,  239,  240,  241,  242,  243,  244
  245,  246,  247,  248,  249,  250,  251,  252,  253,  254,  255,  256,  257,  258,  259,  260
  261,  330,  331,  332,  333,  334,  335,  336,  337,  338,  339,  340,  341,  392,  393,  394
  395,  396,  397,  398,  399,  400,  401,  402,  403,  404,  405,  406,  407,  408,  409,  410
  411,  412,  413,  414,  415,  416,  417,  418,  419,  420,  421,  422,  423,  424,  425,  426
  427,  428,  429,  581,  582,  583,  584,  585,  586,  587,  588,  589,  590,  591,  592,  593
  594,  595,  596,  597,  598,  599,  600,  601,  602,  603,  604,  605,  606,  607,  608,  609
  610,  611,  612,  613,  614,  615,  616,  617,  618,  619,  620,  621,  622,  623,  624,  625
  626,  627,  628,  629,  630,  631,  632,  633,  634,  635,  636,  637,  638,  639,  640,  641
  642,  643,  644,  645,  646,  647,  648,  649,  650,  651,  652,  653,  654,  655,  656,  657
  658,  659,  660,  661,  662,  663,  664,  665,  666,  667,  668,  669,  670,  671,  672,  673
  674,  675,  676,  677,  678,  679,  680,  681,  682,  683,  684,  685,  686,  687,  688,  689
** ... 64 like lines cut
*Elset, elset="Boundary Condition", instance=GelTip-1
  134,  135,  136,  137,  138,  139,  140,  141,  142,  143,  144,  145,  146,  147,  148,  149
  150,  151,  152,  153,  154,  155,  156,  157,  158,  159,  160,  161,  162,  163,  164,  165
  166,  167,  168,  169,  170,  171,  172,  173,  174,  175,  176,  177,  178,  179,  180,  181
  182,  183,  184,  185,  186,  187,  188,  189,  190,  191,  192,  193,  194,  195,  196,  197
  198,  199,  200,  201,  202,  203,  204,  205,  206,  207,  208,  209,  210,  211,  212,  213
  214,  215,  216,  217,  218,  219,  220,  221,  222,  223,  224,  225,  226,  227,  228,  229
  230,  231,  232,  233,  234,  235,  236,  237,  238,  239,  240,  241,  242,  243,  244,  245
  246,  247,  248,  249,  250,  251,  252,  253,  254,  255,  256,  257,  258,  259,  260,  261
  262,  263,  264,  265,  266,  267,  268,  269,  270,  271,  272,  273,  274,  275,  276,  277
  278,  279,  280,  281,  282,  283,  284,  285,  286,  287,  288,  289,  290,  291,  292,  293
  294,  295,  296,  297,  298,  299,  300,  301,  302,  303,  304,  305,  306,  307,  308,  309
  310,  311,  312,  313,  314,  315,  316,  317,  318,  319,  320,  321,  322,  323,  324,  325
  326,  327,  328,  329,  330,  331,  332,  333,  334,  335,  336,  337,  338,  339,  340,  341
  342,  343,  344,  345,  346,  347,  348,  349,  350,  351,  352,  353,  354,  355,  356,  357
  358,  359,  360,  361,  362,  363,  364,  365,  366,  367,  368,  369,  370,  371,  372,  373
  374,  375,  376,  377,  378,  379,  380,  381,  382,  383,  384,  385,  386,  387,  388,  389
  390,  391,  392,  393,  394,  395,  396,  397,  398,  399,  533,  534,  535,  536,  537,  538
  539,  540,  541,  542,  543,  544,  545,  546,  547,  548,  549,  550,  551,  552,  553,  554
  555,  556,  557,  558,  559,  560,  561,  562,  563,  564,  565,  566,  567,  568,  569,  570
  571,  572,  573,  574,  575,  576,  577,  578,  579,  580,  581,  582,  583,  584,  585,  586
** ... 62 like lines cut
*Nset, nset="Contact Surface", instance=GelTip-1
    1,    2,    3,    8,   10,   14,   15,   16,   17,   19,   20,   21,   22,   23,   24,   25
   26,   27,   28,   29,   30,   31,   32,   33,   34,   35,   36,   37,   38,   39,   40,   41
   42,   44,   45,   46,   47,   48,   49,   50,   51,   52,   53,   54,   55,   56,  122,  123
  124,  125,  126,  127,  128,  129,  130,  131,  132,  133,  134,  135,  136,  137,  138,  139
  140,  141,  142,  143,  144,  145,  146,  172,  173,  174,  175,  176,  177,  178,  179,  180
  181,  182,  183,  184,  185,  186,  187,  188,  189,  190,  191,  192,  193,  194,  195,  262
  263,  264,  265,  266,  267,  268,  269,  270,  271,  272,  273,  274,  275,  276,  277,  278
  279,  280,  281,  282,  283,  284,  285,  286,  287,  288,  289,  290,  291,  292,  293,  294
  295,  296,  297,  298,  299,  300,  301,  302,  303,  304,  305,  306,  307,  308,  309,  310
  311,  312,  313,  314,  315,  316,  317,  318,  319,  320,  321,  322,  323,  324,  325,  326
  327,  342,  343,  344,  345,  346,  347,  348,  349,  350,  351,  352,  353,  354,  355,  356
  357,  358,  359,  360,  361,  362,  363,  364,  365,  366,  367,  368,  369,  370,  371,  372
  373,  374,  375,  376,  377,  378,  379,  380,  381,  382,  383,  384,  385,  386,  387,  388
  389,  390,  391,  430,  431,  432,  433,  434,  435,  436,  437,  438,  439,  440,  441,  442
  443,  444,  445,  446,  447,  448,  449,  450,  451,  452,  453,  454,  455,  456,  457,  458
  459,  460,  461,  462,  463,  464,  465,  466,  467,  468,  469,  470,  471,  472,  473,  474
  475,  476,  477,  478,  479,  480,  481,  482,  483,  484,  485,  486,  487,  488,  489,  490
  491,  492,  493,  494,  495,  496,  497,  498,  499,  500,  501,  502,  503,  504,  505,  506
  507,  508,  509,  510,  511,  512,  513,  514,  515,  516,  517,  518,  519,  520,  521,  522
  523,  524,  525,  526,  527,  528,  529,  530,  531,  532,  533,  534,  535,  536,  537,  538
** ... 64 like lines cut
*Elset, elset="Contact Surface", instance=GelTip-1
    1,    2,    3,    4,    5,    6,    7,    8,    9,   10,   11,   12,   13,   14,   15,   16
   17,   18,   19,   20,   21,   22,   23,   24,   25,   26,   27,   28,   29,   30,   31,   32
   33,   34,   35,   36,   37,   38,   39,   40,   41,   42,   43,   44,   45,   46,   47,   48
   49,   50,   51,   52,   53,   54,   55,   56,   57,   58,   59,   60,   61,   62,   63,   64
   65,   66,   67,   68,   69,   70,   71,   72,   73,   74,   75,   76,   77,   78,   79,   80
   81,   82,   83,   84,   85,   86,   87,   88,   89,   90,   91,   92,   93,   94,   95,   96
   97,   98,   99,  100,  101,  102,  103,  104,  105,  106,  107,  108,  109,  110,  111,  112
  113,  114,  115,  116,  117,  118,  119,  120,  121,  122,  123,  124,  125,  126,  127,  128
  129,  130,  131,  132,  133,  400,  401,  402,  403,  404,  405,  406,  407,  408,  409,  410
  411,  412,  413,  414,  415,  416,  417,  418,  419,  420,  421,  422,  423,  424,  425,  426
  427,  428,  429,  430,  431,  432,  433,  434,  435,  436,  437,  438,  439,  440,  441,  442
  443,  444,  445,  446,  447,  448,  449,  450,  451,  452,  453,  454,  455,  456,  457,  458
  459,  460,  461,  462,  463,  464,  465,  466,  467,  468,  469,  470,  471,  472,  473,  474
  475,  476,  477,  478,  479,  480,  481,  482,  483,  484,  485,  486,  487,  488,  489,  490
  491,  492,  493,  494,  495,  496,  497,  498,  499,  500,  501,  502,  503,  504,  505,  506
  507,  508,  509,  510,  511,  512,  513,  514,  515,  516,  517,  518,  519,  520,  521,  522
  523,  524,  525,  526,  527,  528,  529,  530,  531,  532,  666,  667,  668,  669,  670,  671
  672,  673,  674,  675,  676,  677,  678,  679,  680,  681,  682,  683,  684,  685,  686,  687
  688,  689,  690,  691,  692,  693,  694,  695,  696,  697,  698,  699,  700,  701,  702,  703
  704,  705,  706,  707,  708,  709,  710,  711,  712,  713,  714,  715,  716,  717,  718,  719
** ... 62 like lines cut
*Nset, nset=RP, instance=Cube-1-1
 1257,
*Nset, nset=_PickedSet41, internal, instance=GelTip-1
    4,    5,    6,    7,    9,   11,   12,   13,   18,   59,   60,   61,   62,   63,   64,   65
   66,   67,   68,   69,   70,   71,   72,   73,   74,   75,   76,   77,   78,   79,   80,   81
   82,   83,   84,   85,   86,   87,   88,   89,   90,   91,   92,   93,   94,   95,   96,   97
   98,   99,  100,  101,  102,  103,  104,  105,  106,  107,  108,  109,  110,  111,  112,  113
  114,  115,  116,  117,  118,  119,  120,  147,  148,  149,  150,  151,  152,  153,  154,  155
  156,  157,  158,  159,  160,  161,  162,  163,  164,  165,  166,  167,  168,  169,  170,  196
  197,  198,  199,  200,  201,  202,  203,  204,  205,  206,  207,  208,  209,  210,  211,  212
  213,  214,  215,  216,  217,  218,  219,  220,  221,  222,  223,  224,  225,  226,  227,  228
  229,  230,  231,  232,  233,  234,  235,  236,  237,  238,  239,  240,  241,  242,  243,  244
  245,  246,  247,  248,  249,  250,  251,  252,  253,  254,  255,  256,  257,  258,  259,  260
  261,  330,  331,  332,  333,  334,  335,  336,  337,  338,  339,  340,  341,  392,  393,  394
  395,  396,  397,  398,  399,  400,  401,  402,  403,  404,  405,  406,  407,  408,  409,  410
  411,  412,  413,  414,  415,  416,  417,  418,  419,  420,  421,  422,  423,  424,  425,  426
  427,  428,  429,  581,  582,  583,  584,  585,  586,  587,  588,  589,  590,  591,  592,  593
  594,  595,  596,  597,  598,  599,  600,  601,  602,  603,  604,  605,  606,  607,  608,  609
  610,  611,  612,  613,  614,  615,  616,  617,  618,  619,  620,  621,  622,  623,  624,  625
  626,  627,  628,  629,  630,  631,  632,  633,  634,  635,  636,  637,  638,  639,  640,  641
  642,  643,  644,  645,  646,  647,  648,  649,  650,  651,  652,  653,  654,  655,  656,  657
  658,  659,  660,  661,  662,  663,  664,  665,  666,  667,  668,  669,  670,  671,  672,  673
  674,  675,  676,  677,  678,  679,  680,  681,  682,  683,  684,  685,  686,  687,  688,  689
** ... 64 like lines cut
*Elset, elset=_PickedSet41, internal, instance=GelTip-1
  134,  135,  136,  137,  138,  139,  140,  141,  142,  143,  144,  145,  146,  147,  148,  149
  150,  151,  152,  153,  154,  155,  156,  157,  158,  159,  160,  161,  162,  163,  164,  165
  166,  167,  168,  169,  170,  171,  172,  173,  174,  175,  176,  177,  178,  179,  180,  181
  182,  183,  184,  185,  186,  187,  188,  189,  190,  191,  192,  193,  194,  195,  196,  197
  198,  199,  200,  201,  202,  203,  204,  205,  206,  207,  208,  209,  210,  211,  212,  213
  214,  215,  216,  217,  218,  219,  220,  221,  222,  223,  224,  225,  226,  227,  228,  229
  230,  231,  232,  233,  234,  235,  236,  237,  238,  239,  240,  241,  242,  243,  244,  245
  246,  247,  248,  249,  250,  251,  252,  253,  254,  255,  256,  257,  258,  259,  260,  261
  262,  263,  264,  265,  266,  267,  268,  269,  270,  271,  272,  273,  274,  275,  276,  277
  278,  279,  280,  281,  282,  283,  284,  285,  286,  287,  288,  289,  290,  291,  292,  293
  294,  295,  296,  297,  298,  299,  300,  301,  302,  303,  304,  305,  306,  307,  308,  309
  310,  311,  312,  313,  314,  315,  316,  317,  318,  319,  320,  321,  322,  323,  324,  325
  326,  327,  328,  329,  330,  331,  332,  333,  334,  335,  336,  337,  338,  339,  340,  341
  342,  343,  344,  345,  346,  347,  348,  349,  350,  351,  352,  353,  354,  355,  356,  357
  358,  359,  360,  361,  362,  363,  364,  365,  366,  367,  368,  369,  370,  371,  372,  373
  374,  375,  376,  377,  378,  379,  380,  381,  382,  383,  384,  385,  386,  387,  388,  389
  390,  391,  392,  393,  394,  395,  396,  397,  398,  399,  533,  534,  535,  536,  537,  538
  539,  540,  541,  542,  543,  544,  545,  546,  547,  548,  549,  550,  551,  552,  553,  554
  555,  556,  557,  558,  559,  560,  561,  562,  563,  564,  565,  566,  567,  568,  569,  570
  571,  572,  573,  574,  575,  576,  577,  578,  579,  580,  581,  582,  583,  584,  585,  586
** ... 62 like lines cut
*Nset, nset=_PickedSet57, internal, instance=Cube-1-1, generate
    1,  1257,     1
*Elset, elset=_PickedSet57, internal, instance=Cube-1-1, generate
    1,  5662,     1
*Nset, nset=_PickedSet58, internal, instance=Cube-1-1
 1257,
*Nset, nset=_PickedSet59, internal, instance=Cube-1-1
 1257,
*Elset, elset=__PickedSurf35_S2, internal, instance=GelTip-1
    1,    2,    3,    4,    5,    6,    7,    8,    9,   10,   11,   12,   13,   14,   15,   16
   17,   18,   19,   20,   21,   22,   23,   24,   25,   26,   27,   28,   29,   30,   31,   32
   33,   34,   35,   36,   37,   38,   39,   40,   41,   42,   43,   44,   45,   46,   47,   48
   49,   50,   51,   52,   53,   54,   55,   56,   57,   58,   59,   60,   61,   62,   63,   64
   65,   66,   67,   68,   69,   70,   71,   72,   73,   74,   75,   76,   77,   78,   79,   80
   81,   82,   83,   84,   85,   86,   87,   88,   89,   90,   91,   92,   93,   94,   95,   96
   97,   98,   99,  100,  101,  102,  103,  104,  105,  106,  107,  108,  109,  110,  111,  112
  113,  114,  115,  116,  117,  118,  119,  120,  121,  122,  123,  124,  125,  126,  127,  128
  129,  130,  131,  132,  133,  491,  492,  493,  494,  495,  496,  497,  498,  499,  500,  501
  502,  503,  504,  505,  506,  507,  508,  509,  510,  511,  512,  513,  514,  515,  516,  517
  518,  519,  520,  521,  522,  523,  524,  525,  526,  527,  528,  529,  530,  531,  532, 1845
 1846, 1847, 1848, 1849, 1850, 1851, 1852, 1853, 1854, 1855, 1856, 1857, 1858, 1859, 1860, 1861
 1862, 1863, 1864, 1865, 1866, 1867, 1868, 1869, 1870, 1871, 1872, 1873, 1874, 1875, 1876, 1877
 1878, 1879, 1880, 1881, 1882, 1883, 1884, 1885, 1886, 1887, 1888, 1889, 1890, 1891, 1892, 1893
 1894, 1895, 1896, 1897, 1898, 1899, 1900, 1901, 1902, 1903, 1904, 1905, 1906, 1907, 1908, 1909
 1910, 1911, 1912, 1913, 1914, 1915, 1916, 1917, 1918, 1919, 1920, 1921, 1922, 1923, 1924, 1925
 1926, 1927, 1928, 1929, 1930, 1931, 1932, 1933, 1934, 1935, 1936, 1937, 1938, 1939, 1940, 1941
 1942, 1943, 1944, 1945, 1946, 1947, 1948, 1949, 1950, 1951, 1952, 1953, 1954, 1955, 1956, 1957
 1958, 1959, 1960, 1961, 1962, 1963, 1964, 1965, 1966, 1967, 1968, 1969, 1970, 1971, 1972, 1973
 1974, 1975, 1976, 1977, 1978, 1979, 1980, 1981, 1982, 1983, 1984, 1985, 1986, 1987, 1988, 1989
** ... 16 like lines cut
*Elset, elset=__PickedSurf35_S3, internal, instance=GelTip-1
  400,  401,  402,  403,  404,  405,  406,  407,  408,  409,  410,  411,  412,  413,  414,  415
  416,  417,  418,  419,  420,  421,  422,  423,  424,  425,  426,  427,  428,  429,  430,  431
  432,  433,  434,  435,  436,  437,  438,  439,  440,  441,  715,  716,  717,  718,  719,  720
  721,  722,  723,  724,  725,  726,  727,  728,  729,  730,  731,  732,  733,  734,  735,  736
  737,  738,  739,  740,  741,  742,  743,  744,  745,  746,  747,  748,  749,  750,  751,  752
  753,  754,  755,  756,  757,  758,  759,  760,  761,  762,  763,  764,  765,  766,  767,  768
  769,  770,  771,  772,  773,  774,  775,  776,  777,  778,  779,  780,  781,  782,  783,  784
  785,  786,  787,  788,  789,  790,  791,  792,  793,  794,  795,  796,  797,  798, 1712, 1713
 1714, 1715, 1716, 1717, 1718, 1719, 1720, 1721, 1722, 1723, 1724, 1725, 1726, 1727, 1728, 1729
 1730, 1731, 1732, 1733, 1734, 1735, 1736, 1737, 1738, 1739, 1740, 1741, 1742, 1743, 1744, 1745
 1746, 1747, 1748, 1749, 1750, 1751, 1752, 1753, 1754, 1755, 1756, 1757, 1758, 1759, 1760
*Elset, elset=__PickedSurf35_S4, internal, instance=GelTip-1
  442,  443,  444,  445,  446,  447,  448,  449,  450,  451,  452,  453,  454,  455,  456,  457
  458,  459,  460,  461,  462,  463,  464,  465,  466,  467,  468,  469,  470,  471,  472,  473
  474,  475,  476,  477,  478,  479,  480,  481,  482,  483,  484,  485,  486,  487,  488,  489
  490,  666,  667,  668,  669,  670,  671,  672,  673,  674,  675,  676,  677,  678,  679,  680
  681,  682,  683,  684,  685,  686,  687,  688,  689,  690,  691,  692,  693,  694,  695,  696
  697,  698,  699,  700,  701,  702,  703,  704,  705,  706,  707,  708,  709,  710,  711,  712
  713,  714, 1761, 1762, 1763, 1764, 1765, 1766, 1767, 1768, 1769, 1770, 1771, 1772, 1773, 1774
 1775, 1776, 1777, 1778, 1779, 1780, 1781, 1782, 1783, 1784, 1785, 1786, 1787, 1788, 1789, 1790
 1791, 1792, 1793, 1794, 1795, 1796, 1797, 1798, 1799, 1800, 1801, 1802, 1803, 1804, 1805, 1806
 1807, 1808, 1809, 1810, 1811, 1812, 1813, 1814, 1815, 1816, 1817, 1818, 1819, 1820, 1821, 1822
 1823, 1824, 1825, 1826, 1827, 1828, 1829, 1830, 1831, 1832, 1833, 1834, 1835, 1836, 1837, 1838
 1839, 1840, 1841, 1842, 1843, 1844
*Elset, elset=__PickedSurf35_S1, internal, instance=GelTip-1, generate
 1189,  1578,     1
*Surface, type=ELEMENT, name=_PickedSurf35, internal
__PickedSurf35_S2, S2
__PickedSurf35_S3, S3
__PickedSurf35_S4, S4
__PickedSurf35_S1, S1
*Elset, elset=__PickedSurf56_S3, internal, instance=Cube-1-1
   72,  113,  114,  120,  128,  135,  138,  183,  238,  345,  419,  427,  434,  445,  503,  529
  542,  562,  585,  586,  622,  632,  663,  714,  726,  762,  804,  828,  852,  872,  894,  934
  939, 1024, 1057, 1115, 1120, 1136, 1140, 1184, 1190, 1249, 1310, 1331, 1350, 1360, 1412, 1453
 1454, 1555, 1607, 1611, 1613, 1629, 1633, 1643, 1654, 1661, 1669, 1672, 1678, 1685, 1688, 1701
 1703, 1712, 1717, 1721, 1729, 1735, 1736, 1744, 1754, 1755, 1760, 1762, 1766, 1768, 1777, 1782
 1785, 1793, 1798, 1800, 1802, 1806, 1818, 1827, 1829, 1832, 1839, 1845, 1847, 1848, 1852, 1860
 1869, 1870, 1873, 1884, 1886, 1898, 1899, 1901, 1908, 1914, 1915, 1926, 1927, 1932, 1939, 1947
 1962, 1966, 1969, 1988, 2006, 2007, 2008, 2011, 2012, 2014, 2018, 2019, 2036, 2039, 2049, 2051
 2054, 2056, 2064, 2082, 2086, 2093, 2094, 2100, 2111, 2112, 2114, 2124, 2126, 2137, 2143, 2157
 2159, 2162, 2167, 2175, 2180, 2184, 2188, 2190, 2191, 2192, 2198, 2205, 2209, 2217, 2220, 2222
 2223, 2229, 2237, 2239, 2240, 2248, 2256, 2261, 2267, 2269, 2270, 2274, 2285, 2287, 2291, 2292
 2297, 2300, 2303, 2309, 2310, 2312, 2314, 2329, 2331, 2332, 2335, 2337, 2341, 2342, 2346, 2351
 2354, 2361, 2365, 2376, 2379, 2389, 2398, 2400, 2402, 2409, 2420, 2421, 2424, 2426, 2431, 2437
 2438, 2454, 2458, 2463, 2465, 2468, 2475, 2486, 2490, 2495, 2496, 2501, 2502, 2520, 2528, 2533
 2535, 2538, 2543, 2574, 2582, 2591, 2596, 2598, 2601, 2605, 2609, 2613, 2616, 2622, 2626, 2632
 2641, 2649, 2650, 2654, 2660, 2664, 2672, 2674, 2678, 2682, 2684, 2689, 2694, 2715, 2752, 2753
 2758, 2759, 2767, 2769, 2772, 2773, 2776, 2782, 2803, 2807, 2808, 2825, 2826, 2831, 2841, 2842
 2848, 2850, 2854, 2859, 2860, 2866, 2868, 2871, 2879, 2882, 2884, 2887, 2888, 2891, 2901, 2904
 2908, 2909, 2912, 2916, 2930, 2933, 2935, 2937, 2942, 2947, 2948, 2952, 2953, 2961, 2962, 2969
 2970, 2972, 2974, 2979, 2980, 2981, 2982, 2983, 2984, 2988, 2990, 2997, 3002, 3003, 3004, 3006
** ... 42 like lines cut
*Elset, elset=__PickedSurf56_S4, internal, instance=Cube-1-1
  268, 1382, 1744, 1871, 2181, 3015, 3211, 3494, 3643, 3801, 4008, 4159, 4289, 4603, 4729, 4853
 5085, 5174, 5194, 5386
*Elset, elset=__PickedSurf56_S1, internal, instance=Cube-1-1
  432,  972, 1996, 2122, 2343, 2717, 3217, 3433, 3561, 4177, 4344, 4431, 4669, 4692, 4918, 5008
 5019, 5085, 5176, 5178, 5180, 5191, 5224, 5354, 5393
*Elset, elset=__PickedSurf56_S2, internal, instance=Cube-1-1
 1620, 1689, 1809, 1881, 1922, 1994, 2178, 2208, 2211, 2245, 2295, 2735, 3203, 3365, 3829, 3991
 4014, 4015, 4069, 4084, 4162, 4190, 4239, 4665, 5123, 5210, 5221
*Surface, type=ELEMENT, name=_PickedSurf56, internal
__PickedSurf56_S3, S3
__PickedSurf56_S4, S4
__PickedSurf56_S2, S2
__PickedSurf56_S1, S1
*Surface, type=NODE, name=_PickedSet57_CNS_, internal
_PickedSet57, 1.
** Constraint: Constraint-1
*Coupling, constraint name=Constraint-1, ref node=_PickedSet58, surface=_PickedSet57_CNS_
*Kinematic
*End Assembly
** 
** MATERIALS
** 
*Material, name=Elastomer
*Density
 0.001,
*Hyperelastic, neo hooke
 0.025, 4.13793
*Material, name=Rigid
*Density
 0.008,
*Elastic
210., 0.3
** 
** INTERACTION PROPERTIES
** 
*Surface Interaction, name=IntProp-1
1.,
*Friction, slip tolerance=0.005
 0.3,
*Surface Behavior, pressure-overclosure=HARD
** 
** BOUNDARY CONDITIONS
** 
** Name: BC-2 Type: Symmetry/Antisymmetry/Encastre
*Boundary
_PickedSet41, ENCASTRE
** 
** INTERACTIONS
** 
** Interaction: Int-1
*Contact Pair, interaction=IntProp-1, type=SURFACE TO SURFACE
_PickedSurf35, _PickedSurf56
** ----------------------------------------------------------------
** 
** STEP: Step-1
** 
*Step, name=Step-1, nlgeom=YES, inc=10000000
*Static
1e-06, 0.9, 1e-10, 0.9
** 
** BOUNDARY CONDITIONS
** 
** Name: BC-1 Type: Displacement/Rotation
*Boundary
_PickedSet59, 1, 1, -0.7
_PickedSet59, 2, 2
_PickedSet59, 3, 3
_PickedSet59, 4, 4
_PickedSet59, 5, 5
_PickedSet59, 6, 6
** 
** OUTPUT REQUESTS
** 
*Restart, write, frequency=0
** 
** FIELD OUTPUT: F-Output-1
** 
*Output, field, time interval=0.025
*Node Output, nset="Contact Surface"
UT, 
*Element Output, elset="Contact Surface", directions=YES
NFORC, 
** 
** HISTORY OUTPUT: H-Output-1
** 
*Output, history, time interval=0.025
*Node Output, nset=RP
RF1, RF2, RF3
*Contact Output, nset=RP
CFN1, CFN2, CFN3, CFNM
*End Step
