*Heading
** Job name: MESH2 Model name: Cube_shear
** Generated by: Abaqus/CAE 2023
*Preprint, echo=NO, model=NO, history=NO, contact=NO
**
** PARTS
**
*Part, name=Cube-1
*Node
      1,          -2.,          -2.,   14.1000004
      2,          -2.,          -2.,    4.0999999
      3,           2.,          -2.,    4.0999999
      4,           2.,          -2.,   14.1000004
      5,           2.,           2.,   14.1000004
      6,          -2.,           2.,   14.1000004
      7,          -2.,           2.,    4.0999999
      8,           2.,           2.,    4.0999999
      9,          -2.,          -2.,   13.3307695
     10,          -2.,          -2.,   12.5615387
     11,          -2.,          -2.,   11.7923079
     12,          -2.,          -2.,    11.023077
     13,          -2.,          -2.,   10.2538462
     14,          -2.,          -2.,   9.48461533
     15,          -2.,          -2.,   8.71538448
     16,          -2.,          -2.,   7.94615364
     17,          -2.,          -2.,   7.17692327
     18,          -2.,          -2.,   6.40769243
     19,          -2.,          -2.,   5.63846159
     20,          -2.,          -2.,   4.86923075
** ... 3927 like lines cut
*Element, type=C3D10
   1,  313,  314,  315,  316,  590,  589,  588,  592,  591,  593
   2,  317,  318,  319,  320,  596,  595,  594,  598,  597,  599
   3,  313,  321,  315,  314,  601,  600,  588,  590,  602,  589
   4,  313,  322,  323,  314,  605,  604,  603,  590,  606,  607
   5,  323,  313,  320,  322,  603,  609,  608,  604,  605,  610
   6,  317,  313,  323,  321,  612,  603,  611,  613,  601,  614
   7,  324,  325,  326,  327,  617,  616,  615,  619,  618,  620
   8,  328,  329,  330,  331,  623,  622,  621,  625,  624,  626
   9,  329,  330,  331,  324,  622,  626,  624,  628,  627,  629
  10,  324,  329,  330,  332,  628,  622,  627,  631,  630,  632
  11,  324,  330,  333,  332,  627,  634,  633,  631,  632,  635
  12,  334,  320,  322,  323,  637,  610,  636,  638,  608,  604
  13,  334,  335,  320,  336,  640,  639,  637,  642,  641,  643
  14,  334,  337,  338,  339,  646,  645,  644,  648,  647,  649
  15,  334,  323,  339,  317,  638,  650,  648,  651,  611,  652
  16,  334,  338,  340,  341,  644,  654,  653,  656,  655,  657
  17,  342,  343,  344,  345,  660,  659,  658,  662,  661,  663
  18,  346,  347,  348,  345,  666,  665,  664,  668,  667,  669
  19,  342,  349,  346,  347,  672,  671,  670,  674,  673,  666
  20,  342,  346,  349,  350,  670,  671,  672,  676,  675,  677
** ... 2444 like lines cut
*Node
   3948,           0.,           0.,    4.0999999
*Nset, nset=Cube-1-RefPt_, internal
3948, 
*Nset, nset=_PickedSet3, internal, generate
    1,  3947,     1
*Elset, elset=_PickedSet3, internal, generate
    1,  2464,     1
** Section: rigid
*Solid Section, elset=_PickedSet3, material=Rigid
,
*End Part
**  
*Part, name=Elastomer
*Node
      1,          10.,          10.,           4.
      2,          10.,          10.,           2.
      3,          10.,          10.,           0.
      4,           8.,          10.,           4.
      5,           8.,          10.,           2.
      6,           8.,          10.,           0.
      7,           6.,          10.,           4.
      8,           6.,          10.,           2.
      9,           6.,          10.,           0.
     10,           4.,          10.,           4.
     11,           4.,          10.,           2.
     12,           4.,          10.,           0.
     13,           2.,          10.,           4.
     14,           2.,          10.,           2.
     15,           2.,          10.,           0.
     16,           0.,          10.,           4.
     17,           0.,          10.,           2.
     18,           0.,          10.,           0.
     19,          -2.,          10.,           4.
     20,          -2.,          10.,           2.
** ... 343 like lines cut
*Element, type=C3D8R
  1,  34,  35,  38,  37,   1,   2,   5,   4
  2,  35,  36,  39,  38,   2,   3,   6,   5
  3,  37,  38,  41,  40,   4,   5,   8,   7
  4,  38,  39,  42,  41,   5,   6,   9,   8
  5,  40,  41,  44,  43,   7,   8,  11,  10
  6,  41,  42,  45,  44,   8,   9,  12,  11
  7,  43,  44,  47,  46,  10,  11,  14,  13
  8,  44,  45,  48,  47,  11,  12,  15,  14
  9,  46,  47,  50,  49,  13,  14,  17,  16
 10,  47,  48,  51,  50,  14,  15,  18,  17
 11,  49,  50,  53,  52,  16,  17,  20,  19
 12,  50,  51,  54,  53,  17,  18,  21,  20
 13,  52,  53,  56,  55,  19,  20,  23,  22
 14,  53,  54,  57,  56,  20,  21,  24,  23
 15,  55,  56,  59,  58,  22,  23,  26,  25
 16,  56,  57,  60,  59,  23,  24,  27,  26
 17,  58,  59,  62,  61,  25,  26,  29,  28
 18,  59,  60,  63,  62,  26,  27,  30,  29
 19,  61,  62,  65,  64,  28,  29,  32,  31
 20,  62,  63,  66,  65,  29,  30,  33,  32
** ... 180 like lines cut
*Nset, nset=_PickedSet2, internal, generate
   1,  363,    1
*Elset, elset=_PickedSet2, internal, generate
   1,  200,    1
** Section: Elastomer-new
*Solid Section, elset=_PickedSet2, material=elastomer-new
,
*End Part
**  
**
** ASSEMBLY
**
*Assembly, name=Assembly
**  
*Instance, name=Cube-1-1, part=Cube-1
          3.,          -3.,           0.
*End Instance
**  
*Instance, name=Elastomer-1, part=Elastomer
*End Instance
**  
*Nset, nset="Contact Surface", instance=Elastomer-1, generate
   1,  361,    3
*Elset, elset="Contact Surface", instance=Elastomer-1, generate
   1,  199,    2
*Nset, nset="Fixed Surface", instance=Elastomer-1, generate
   3,  363,    3
*Elset, elset="Fixed Surface", instance=Elastomer-1, generate
   2,  200,    2
*Nset, nset="Indenter RP", instance=Cube-1-1
 3948,
*Nset, nset=_PickedSet131, internal, instance=Cube-1-1, generate
    1,  3948,     1
*Elset, elset=_PickedSet131, internal, instance=Cube-1-1, generate
    1,  2464,     1
*Nset, nset=_PickedSet132, internal, instance=Cube-1-1
 3948,
*Nset, nset=_PickedSet133, internal, instance=Cube-1-1
 3948,
*Nset, nset=_PickedSet134, internal, instance=Elastomer-1, generate
   3,  363,    3
*Elset, elset=_PickedSet134, internal, instance=Elastomer-1, generate
   2,  200,    2
*Elset, elset=__PickedSurf129_S3, internal, instance=Cube-1-1
  560,  600,  773,  980,  992, 1033, 1168, 1169, 1225, 1246, 1375, 1395, 1543, 1594, 1637, 1790
 1804, 1828, 1829, 1903, 1956, 1989, 2016, 2026, 2028, 2076, 2079, 2185, 2274, 2282, 2338, 2347
 2356, 2360, 2361, 2363, 2364, 2368, 2369, 2386, 2387, 2394, 2398, 2410, 2420, 2429
*Elset, elset=__PickedSurf129_S1, internal, instance=Cube-1-1
  907, 1373
*Elset, elset=__PickedSurf129_S2, internal, instance=Cube-1-1
 1300, 2091
*Surface, type=ELEMENT, name=_PickedSurf129, internal
__PickedSurf129_S3, S3
__PickedSurf129_S1, S1
__PickedSurf129_S2, S2
*Elset, elset=__PickedSurf130_S6, internal, instance=Elastomer-1, generate
   1,  199,    2
*Surface, type=ELEMENT, name=_PickedSurf130, internal
__PickedSurf130_S6, S6
*Surface, type=NODE, name=_PickedSet131_CNS_, internal
_PickedSet131, 1.
** Constraint: Constraint-1
*Coupling, constraint name=Constraint-1, ref node=_PickedSet132, surface=_PickedSet131_CNS_
*Kinematic
*End Assembly
** 
** MATERIALS
** 
*Material, name=Rigid
*Density
 0.008,
*Elastic
210., 0.3
*Material, name=elastomer-new
*Density
 0.001,
*Hyperelastic, neo hooke
 0.025, 4.13793
** 
** INTERACTION PROPERTIES
** 
*Surface Interaction, name=IntProp-1
1.,
*Friction, slip tolerance=0.005
 0.5,
*Surface Behavior, pressure-overclosure=HARD
** 
** BOUNDARY CONDITIONS
** 
** Name: BC-1 Type: Symmetry/Antisymmetry/Encastre
*Boundary
_PickedSet134, ENCASTRE
** 
** INTERACTIONS
** 
** Interaction: Int-1
*Contact Pair, interaction=IntProp-1, type=SURFACE TO SURFACE
_PickedSurf130, _PickedSurf129
** ----------------------------------------------------------------
** 
** STEP: Step-1
** 
*Step, name=Step-1, nlgeom=YES, inc=1000000
*Static
1e-05, 0.6, 5e-08, 0.1
** 
** BOUNDARY CONDITIONS
** 
** Name: BC-2 Type: Displacement/Rotation
*Boundary
_PickedSet133, 1, 1
_PickedSet133, 2, 2
_PickedSet133, 3, 3, -0.6
_PickedSet133, 4, 4
_PickedSet133, 5, 5
_PickedSet133, 6, 6
** 
** CONTROLS
** 
*Controls, reset
*Controls, parameters=time incrementation
, , , , , , , 20, , , 
** 
** OUTPUT REQUESTS
** 
*Restart, write, number interval=1, time marks=NO
*Output, field, frequency=0
*Output, history, frequency=0
*End Step
** ----------------------------------------------------------------
** 
** STEP: Step-2
** 
*Step, name=Step-2, nlgeom=YES, inc=10000000
*Static
1e-06, 0.5, 1e-09, 0.1
** 
** BOUNDARY CONDITIONS
** 
** Name: BC-2 Type: Displacement/Rotation
*Boundary
_PickedSet133, 1, 1, 0.4
_PickedSet133, 2, 2, 0.4
_PickedSet133, 3, 3, -0.6
** 
** OUTPUT REQUESTS
** 
*Restart, write, frequency=0
** 
** FIELD OUTPUT: F-Output-1
** 
*Output, field, time interval=0.1
*Node Output, nset="Contact Surface"
UT, 
*Element Output, elset="Contact Surface", directions=YES
NFORC, 
** 
** HISTORY OUTPUT: H-Output-2
** 
*Output, history, time interval=0.1, time marks=NO
*Node Output, nset="Indenter RP"
RF1, RF2, RF3, RT, UT
*Contact Output, nset="Indenter RP"
CFN1, CFN2, CFN3, CFNM
*End Step
